15
all intermolecular distances r = 2.0 <= r_inner = 2.5, should be 6/12
O 5.000 0.000 0.000
H 5.000 0.000 0.947
H 5.000 0.896 -0.317
O 7.000 0.000 0.000
H 7.000 0.000 0.947
H 7.000 0.896 -0.317
O 9.000 0.000 0.000
H 9.000 0.000 0.947
H 9.000 0.896 -0.317
O 11.000 0.000 0.000
H 11.000 0.000 0.947
H 11.000 0.896 -0.317
O 13.000 0.000 0.000
H 13.000 0.000 0.947
H 13.000 0.896 -0.317
15
move molecule #4 to r_inner = 2.5 < r = 3.0 <= r_outer = 3.5, still 6/12
O 5.100 0.000 0.000
H 5.100 0.000 0.947
H 5.100 0.896 -0.317
O 7.100 0.000 0.000
H 7.100 0.000 0.947
H 7.100 0.896 -0.317
O 9.100 0.000 0.000
H 9.100 0.000 0.947
H 9.100 0.896 -0.317
O 12.100 0.000 0.000
H 12.100 0.000 0.947
H 12.100 0.896 -0.317
O 14.100 0.000 0.000
H 14.100 0.000 0.947
H 14.100 0.896 -0.317
15
move 1 atom in molecule #4 to r = 3.55 > r_outer = 3.5, rest are at r = 3.45 <= r_outer, still 6/12
O 5.100 0.000 0.000
H 5.100 0.000 0.947
H 5.100 0.896 -0.317
O 7.100 0.000 0.000
H 7.100 0.000 0.947
H 7.100 0.896 -0.317
O 9.100 0.000 0.000
H 9.100 0.000 0.947
H 9.100 0.896 -0.317
O 12.650 0.000 0.000
H 12.550 0.000 0.947
H 12.550 0.896 -0.317
O 14.650 0.000 0.000
H 14.650 0.000 0.947
H 14.650 0.896 -0.317
15
move rest of molecule #4 to r = 4.1 > r_outer = 3.5, now 6/9
O 5.100 0.000 0.000
H 5.100 0.000 0.947
H 5.100 0.896 -0.317
O 7.100 0.000 0.000
H 7.100 0.000 0.947
H 7.100 0.896 -0.317
O 9.100 0.000 0.000
H 9.100 0.000 0.947
H 9.100 0.896 -0.317
O 13.200 0.000 0.000
H 13.200 0.000 0.947
H 13.200 0.896 -0.317
O 15.200 0.000 0.000
H 15.200 0.000 0.947
H 15.200 0.896 -0.317
15
move one atom of molecule #4 to r_inner = 2.5 < r = 3.45 < r_outer = 3.5, rest at r = 3.55 <= r_outer = 3.5 still 6/9
O 5.100 0.000 0.000
H 5.100 0.000 0.947
H 5.100 0.896 -0.317
O 7.100 0.000 0.000
H 7.100 0.000 0.947
H 7.100 0.896 -0.317
O 9.100 0.000 0.000
H 9.100 0.000 0.947
H 9.100 0.896 -0.317
O 12.550 0.000 0.000
H 12.650 0.000 0.947
H 12.650 0.896 -0.317
O 14.650 0.000 0.000
H 14.650 0.000 0.947
H 14.650 0.896 -0.317
15
move rest of molecule #4 to r_inner = 2.5 < r = 3.1 < r_outer = 3.5, still 6/9
O 5.100 0.000 0.000
H 5.100 0.000 0.947
H 5.100 0.896 -0.317
O 7.100 0.000 0.000
H 7.100 0.000 0.947
H 7.100 0.896 -0.317
O 9.100 0.000 0.000
H 9.100 0.000 0.947
H 9.100 0.896 -0.317
O 12.200 0.000 0.000
H 12.200 0.000 0.947
H 12.200 0.896 -0.317
O 14.200 0.000 0.000
H 14.200 0.000 0.947
H 14.200 0.896 -0.317
15
move one atom of molecule #4 to r = 2.45 < r_inner = 2.5, rest at r_inner = 2.5 < r = 2.55 <= r_outer = 3.5, back to 6/12
O 5.100 0.000 0.000
H 5.100 0.000 0.947
H 5.100 0.896 -0.317
O 7.100 0.000 0.000
H 7.100 0.000 0.947
H 7.100 0.896 -0.317
O 9.100 0.000 0.000
H 9.100 0.000 0.947
H 9.100 0.896 -0.317
O 11.550 0.000 0.000
H 11.650 0.000 0.947
H 11.650 0.896 -0.317
O 13.650 0.000 0.000
H 13.650 0.000 0.947
H 13.650 0.896 -0.317
15
move rest of molecule #4 to r = 2.1 < r_inner = 2.5, still 6/12
O 5.100 0.000 0.000
H 5.100 0.000 0.947
H 5.100 0.896 -0.317
O 7.100 0.000 0.000
H 7.100 0.000 0.947
H 7.100 0.896 -0.317
O 9.100 0.000 0.000
H 9.100 0.000 0.947
H 9.100 0.896 -0.317
O 11.200 0.000 0.000
H 11.200 0.000 0.947
H 11.200 0.896 -0.317
O 13.200 0.000 0.000
H 13.200 0.000 0.947
H 13.200 0.896 -0.317
